*INCLUDE, INPUT=model.inp
*SOLID SECTION, ELSET=elSet-1, MATERIAL=MATERIAL-1
*SOLID SECTION, ELSET=elSet-2, MATERIAL=MATERIAL-2
*MATERIAL, NAME=MATERIAL-1
*ELASTIC
1E-36, 0.3
*MATERIAL, NAME=MATERIAL-2
*ELASTIC
1., 0.3
*BOUNDARY
nSet-Fixed, PINNED
*Step
*MATRIX GENERATE, STIFFNESS
*MATRIX OUTPUT, STIFFNESS, FORMAT=COORDINATE
*End Step