*INCLUDE, INPUT=model.inp
*ELSET, ELSET=ELEMENTS-ALL, GENERATE
1,26744,1
*SOLID SECTION, ELSET=ELEMENTS-ALL, MATERIAL=MAT-NULL
*MATERIAL, NAME=MAT-NULL
*ELASTIC
1.E-36, 0.3
*BOUNDARY
nSet-Fixed, PINNED
*INCLUDE, INPUT=param.inp
*MATRIX ASSEMBLE, STIFFNESS=K_1
*MATRIX ASSEMBLE, STIFFNESS=K_2
*STEP
*STATIC
*CLOAD
*INCLUDE, INPUT=load.inp
*FILE FORMAT, ASCII
*NODE FILE
U
*END STEP